-------------------------------------------------------
          Amber 16 PMEMD                              2016
          -------------------------------------------------------

  [-O]verwriting output

File Assignments:

 Here is the input file:

# Equlibrate the density
&cntrl
imin=0,
irest=1,
ntx=5,
nstlim=1000, dt=0.002,
ntc=2,ntf=2,
cut=8.0, ntb=2,
ntp=1, taup=1.0,
ntpr=20, ntwx=20,
ntt=3, gamma_ln=2.0,
temp0=300.0,
ntr=1, restraintmask=':1-218',
restraint_wt=2.0,
ioutfm = 1,
/

Note: ig = -1. Setting random seed to   977886 based on wallclock time in
      microseconds and disabling the synchronization of random numbers
      between tasks to improve performance.

--------------------------------------------------------------------------------
   1.  RESOURCE   USE:
--------------------------------------------------------------------------------

 getting box info from netcdf restart file
 NATOM  =   29205 NTYPES =      17 NBONH =   28170 MBONA  =    1053
 NTHETH =    2361 MTHETA =    1415 NPHIH =    4706 MPHIA  =    4372
 NHPARM =       0 NPARM  =       0 NNB   =   47559 NRES   =    9178
 NBONA  =    1053 NTHETA =    1415 NPHIA =    4372 NUMBND =      69
 NUMANG =     161 NPTRA  =     197 NATYP =      36 NPHB   =       1
 IFBOX  =       1 NMXRS  =      26 IFCAP =       0 NEXTRA =       0
 NCOPY  =       0

     BOX TYPE: RECTILINEAR

--------------------------------------------------------------------------------
   2.  CONTROL  DATA  FOR  THE  RUN
--------------------------------------------------------------------------------

default_name

General flags:
     imin    =       0, nmropt  =       0

Nature and format of input:
     ntx     =       5, irest   =       1, ntrx    =       1

Nature and format of output:
     ntxo    =       2, ntpr    =      20, ntrx    =       1, ntwr    =    1000
     iwrap   =       0, ntwx    =      20, ntwv    =       0, ntwe    =       0
     ioutfm  =       1, ntwprt  =       0, idecomp =       0, rbornstat=      0

Potential function:
     ntf     =       2, ntb     =       2, igb     =       0, nsnb    =      25
     ipol    =       0, gbsa    =       0, iesp    =       0
     dielc   =   1.00000, cut     =   8.00000, intdiel =   1.00000

Frozen or restrained atoms:
     ibelly  =       0, ntr     =       1
     restraint_wt =   2.00000

Molecular dynamics:
     nstlim  =      1000, nscm    =         0, nrespa  =         1
     t       =   0.00000, dt      =   0.00200, vlimit  =  20.00000

Langevin dynamics temperature regulation:
     ig      =  977886
     temp0   = 300.00000, tempi   =   0.00000, gamma_ln=   2.00000

Pressure regulation:
     ntp     =       1
     pres0   =   1.00000, comp    =  44.60000, taup    =   1.00000

SHAKE:
     ntc     =       2, jfastw  =       0
     tol     =   0.00001

Ewald parameters:
     verbose =       0, ew_type =       0, nbflag  =       1, use_pme =       1
     vdwmeth =       1, eedmeth =       1, netfrc  =       1
     Box X =   68.705   Box Y =   67.010   Box Z =   80.400
     Alpha =   90.000   Beta  =   90.000   Gamma =   90.000
     NFFT1 =   72       NFFT2 =   72       NFFT3 =   81
     Cutoff=    8.000   Tol   =0.100E-04
     Ewald Coefficient =  0.34864
     Interpolation order =    4

    LOADING THE CONSTRAINED ATOMS AS GROUPS

   5.  REFERENCE ATOM COORDINATES

  default_name
     Mask :1-218; matches  2325 atoms

--------------------------------------------------------------------------------
   3.  ATOMIC COORDINATES AND VELOCITIES
--------------------------------------------------------------------------------

default_name
 begin time read from input coords =     2.000 ps

 Number of triangulated 3-point waters found:     9045

     Sum of charges from parm topology file =  -0.00000208
     Forcing neutrality...

--------------------------------------------------------------------------------
   4.  RESULTS
 NSTEP =       20   TIME(PS) =       2.040  TEMP(K) =    35.37  PRESS =   246.6
 Etot   =   -107280.8010  EKtot   =      2089.1760  EPtot      =   -109369.9770
 BOND   =        99.6108  ANGLE   =       351.3865  DIHED      =      1453.7577
 1-4 NB =       380.0756  1-4 EEL =      5399.8364  VDWAALS    =     21402.6166
 EELEC  =   -138490.3041  EHBOND  =         0.0000  RESTRAINT  =        33.0435
 EAMBER (non-restraint)  =   -109403.0204
 EKCMT  =      1082.3139  VIRIAL  =      -888.4665  VOLUME     =    370077.1464
                                                    Density    =         0.7980
 Ewald error estimate:   0.3639E-03
 ------------------------------------------------------------------------------

      A V E R A G E S   O V E R      50 S T E P S

 NSTEP =     1000   TIME(PS) =       4.000  TEMP(K) =   223.81  PRESS =   -22.7
 Etot   =    -81765.3411  EKtot   =     13219.3901  EPtot      =    -94984.7312
 BOND   =       311.7721  ANGLE   =       866.1941  DIHED      =      1572.5614
 1-4 NB =       416.1646  1-4 EEL =      5383.8471  VDWAALS    =     15182.1757
 EELEC  =   -118920.1427  EHBOND  =         0.0000  RESTRAINT  =       202.6965
 EAMBER (non-restraint)  =    -95187.4277
 EKCMT  =      6042.5730  VIRIAL  =      6224.1696  VOLUME     =    371821.4134
                                                    Density    =         0.7942
 Ewald error estimate:   0.1215E-03
 ------------------------------------------------------------------------------

      R M S  F L U C T U A T I O N S

 NSTEP =     1000   TIME(PS) =       4.000  TEMP(K) =    67.17  PRESS =   238.9
 Etot   =      9608.9301  EKtot   =      3967.2298  EPtot      =      5654.1881
 BOND   =        79.1138  ANGLE   =       177.8268  DIHED      =        43.9027
 1-4 NB =        13.7494  1-4 EEL =        16.5237  VDWAALS    =      2559.3916
 EELEC  =      7848.5570  EHBOND  =         0.0000  RESTRAINT  =        61.7908
 EAMBER (non-restraint)  =      5592.3972
 EKCMT  =      1782.7321  VIRIAL  =      3625.4373  VOLUME     =      1071.8836
                                                    Density    =         0.0023
 Ewald error estimate:   0.1059E-03
 ------------------------------------------------------------------------------
