-------------------------------------------------------
          Amber 16 PMEMD                              2016
          -------------------------------------------------------

  [-O]verwriting output

File Assignments:

 Here is the input file:

# Equil.in
&cntrl
imin = 0, irest = 1,ntx = 5, nstlim = 2000, dt = 0.002,
ntc = 2, ntf = 2,
cut = 10.0, ntb = 2, ntp = 1, taup=2.0,
ntpr = 20, ntwx = 20,
ntt = 3, gamma_ln = 2.0,
temp0 = 300.0,
ntr = 1, restraintmask = ':1-218',
restraint_wt = 0.5,
ioutfm = 1,
/

Note: ig = -1. Setting random seed to   285123 based on wallclock time in
      microseconds and disabling the synchronization of random numbers
      between tasks to improve performance.

--------------------------------------------------------------------------------
   1.  RESOURCE   USE:
--------------------------------------------------------------------------------

 getting box info from netcdf restart file
 NATOM  =   29205 NTYPES =      17 NBONH =   28170 MBONA  =    1053
 NTHETH =    2361 MTHETA =    1415 NPHIH =    4706 MPHIA  =    4372
 NHPARM =       0 NPARM  =       0 NNB   =   47559 NRES   =    9178
 NBONA  =    1053 NTHETA =    1415 NPHIA =    4372 NUMBND =      69
 NUMANG =     161 NPTRA  =     197 NATYP =      36 NPHB   =       1
 IFBOX  =       1 NMXRS  =      26 IFCAP =       0 NEXTRA =       0
 NCOPY  =       0

     BOX TYPE: RECTILINEAR

--------------------------------------------------------------------------------
   2.  CONTROL  DATA  FOR  THE  RUN
--------------------------------------------------------------------------------

default_name

General flags:
     imin    =       0, nmropt  =       0

Nature and format of input:
     ntx     =       5, irest   =       1, ntrx    =       1

Nature and format of output:
     ntxo    =       2, ntpr    =      20, ntrx    =       1, ntwr    =    2000
     iwrap   =       0, ntwx    =      20, ntwv    =       0, ntwe    =       0
     ioutfm  =       1, ntwprt  =       0, idecomp =       0, rbornstat=      0

Potential function:
     ntf     =       2, ntb     =       2, igb     =       0, nsnb    =      25
     ipol    =       0, gbsa    =       0, iesp    =       0
     dielc   =   1.00000, cut     =  10.00000, intdiel =   1.00000

Frozen or restrained atoms:
     ibelly  =       0, ntr     =       1
     restraint_wt =   0.50000

Molecular dynamics:
     nstlim  =      2000, nscm    =         0, nrespa  =         1
     t       =   0.00000, dt      =   0.00200, vlimit  =  20.00000

Langevin dynamics temperature regulation:
     ig      =  285123
     temp0   = 300.00000, tempi   =   0.00000, gamma_ln=   2.00000

Pressure regulation:
     ntp     =       1
     pres0   =   1.00000, comp    =  44.60000, taup    =   2.00000

SHAKE:
     ntc     =       2, jfastw  =       0
     tol     =   0.00001

Ewald parameters:
     verbose =       0, ew_type =       0, nbflag  =       1, use_pme =       1
     vdwmeth =       1, eedmeth =       1, netfrc  =       1
     Box X =   68.662   Box Y =   66.968   Box Z =   80.350
     Alpha =   90.000   Beta  =   90.000   Gamma =   90.000
     NFFT1 =   72       NFFT2 =   72       NFFT3 =   81
     Cutoff=   10.000   Tol   =0.100E-04
     Ewald Coefficient =  0.27511
     Interpolation order =    4

    LOADING THE CONSTRAINED ATOMS AS GROUPS

   5.  REFERENCE ATOM COORDINATES

  default_name
     Mask :1-218; matches  2325 atoms

--------------------------------------------------------------------------------
   3.  ATOMIC COORDINATES AND VELOCITIES
--------------------------------------------------------------------------------

default_name
 begin time read from input coords =     4.000 ps

 Number of triangulated 3-point waters found:     9045

     Sum of charges from parm topology file =  -0.00000208
     Forcing neutrality...

--------------------------------------------------------------------------------
   4.  RESULTS
 NSTEP =       20   TIME(PS) =       4.040  TEMP(K) =   284.45  PRESS =  -505.0
 Etot   =    -71978.5655  EKtot   =     16800.7377  EPtot      =    -88779.3032
 BOND   =       377.7911  ANGLE   =      1094.0213  DIHED      =      1620.8564
 1-4 NB =       425.6189  1-4 EEL =      5391.2263  VDWAALS    =     12129.5122
 EELEC  =   -109905.5122  EHBOND  =         0.0000  RESTRAINT  =        87.1827
 EAMBER (non-restraint)  =    -88866.4859
 EKCMT  =      7605.1820  VIRIAL  =     11632.2822  VOLUME     =    369304.0198
                                                    Density    =         0.7996
 Ewald error estimate:   0.4621E-04
 ------------------------------------------------------------------------------

      A V E R A G E S   O V E R     100 S T E P S

 NSTEP =     2000   TIME(PS) =       8.000  TEMP(K) =   297.15  PRESS =  -492.2
 Etot   =    -69959.0167  EKtot   =     17551.0293  EPtot      =    -87510.0459
 BOND   =       385.5707  ANGLE   =      1065.3959  DIHED      =      1622.8830
 1-4 NB =       430.0436  1-4 EEL =      5374.7387  VDWAALS    =     11569.2209
 EELEC  =   -108125.7842  EHBOND  =         0.0000  RESTRAINT  =       167.8854
 EAMBER (non-restraint)  =    -87677.9314
 EKCMT  =      8031.1741  VIRIAL  =     11872.0030  VOLUME     =    361651.5509
                                                    Density    =         0.8167
 Ewald error estimate:   0.6135E-04
 ------------------------------------------------------------------------------

      R M S  F L U C T U A T I O N S

 NSTEP =     2000   TIME(PS) =       8.000  TEMP(K) =     4.45  PRESS =   120.3
 Etot   =       652.5176  EKtot   =       262.9328  EPtot      =       413.5396
 BOND   =        15.3540  ANGLE   =        23.0872  DIHED      =        13.0933
 1-4 NB =         8.6478  1-4 EEL =        18.5043  VDWAALS    =       289.8130
 EELEC  =       662.4999  EHBOND  =         0.0000  RESTRAINT  =        19.5455
 EAMBER (non-restraint)  =       393.9940
 EKCMT  =       146.8072  VIRIAL  =       970.2035  VOLUME     =      4745.7554
                                                    Density    =         0.0107
 Ewald error estimate:   0.4618E-04
 ------------------------------------------------------------------------------
