-------------------------------------------------------
          Amber 16 PMEMD                              2016
          -------------------------------------------------------

  [-O]verwriting output

File Assignments:

 Here is the input file:

# Equlibrate the density
&cntrl
imin=0,
irest=1,
ntx=5,
nstlim=1000, dt=0.002,
ntc=2,ntf=2,
cut=8.0, ntb=2,
ntp=1, taup=1.0,
ntpr=20, ntwx=20,
ntt=3, gamma_ln=2.0,
temp0=300.0,
ntr=1, restraintmask=':1-218',
restraint_wt=2.0,
ioutfm = 1,
/

Note: ig = -1. Setting random seed to    41312 based on wallclock time in
      microseconds and disabling the synchronization of random numbers
      between tasks to improve performance.

--------------------------------------------------------------------------------
   1.  RESOURCE   USE:
--------------------------------------------------------------------------------

 getting box info from netcdf restart file
 NATOM  =   29205 NTYPES =      17 NBONH =   28170 MBONA  =    1053
 NTHETH =    2361 MTHETA =    1415 NPHIH =    4706 MPHIA  =    4372
 NHPARM =       0 NPARM  =       0 NNB   =   47559 NRES   =    9178
 NBONA  =    1053 NTHETA =    1415 NPHIA =    4372 NUMBND =      69
 NUMANG =     161 NPTRA  =     197 NATYP =      36 NPHB   =       1
 IFBOX  =       1 NMXRS  =      26 IFCAP =       0 NEXTRA =       0
 NCOPY  =       0

     BOX TYPE: RECTILINEAR

--------------------------------------------------------------------------------
   2.  CONTROL  DATA  FOR  THE  RUN
--------------------------------------------------------------------------------

default_name

General flags:
     imin    =       0, nmropt  =       0

Nature and format of input:
     ntx     =       5, irest   =       1, ntrx    =       1

Nature and format of output:
     ntxo    =       2, ntpr    =      20, ntrx    =       1, ntwr    =    1000
     iwrap   =       0, ntwx    =      20, ntwv    =       0, ntwe    =       0
     ioutfm  =       1, ntwprt  =       0, idecomp =       0, rbornstat=      0

Potential function:
     ntf     =       2, ntb     =       2, igb     =       0, nsnb    =      25
     ipol    =       0, gbsa    =       0, iesp    =       0
     dielc   =   1.00000, cut     =   8.00000, intdiel =   1.00000

Frozen or restrained atoms:
     ibelly  =       0, ntr     =       1
     restraint_wt =   2.00000

Molecular dynamics:
     nstlim  =      1000, nscm    =         0, nrespa  =         1
     t       =   0.00000, dt      =   0.00200, vlimit  =  20.00000

Langevin dynamics temperature regulation:
     ig      =   41312
     temp0   = 300.00000, tempi   =   0.00000, gamma_ln=   2.00000

Pressure regulation:
     ntp     =       1
     pres0   =   1.00000, comp    =  44.60000, taup    =   1.00000

SHAKE:
     ntc     =       2, jfastw  =       0
     tol     =   0.00001

Ewald parameters:
     verbose =       0, ew_type =       0, nbflag  =       1, use_pme =       1
     vdwmeth =       1, eedmeth =       1, netfrc  =       1
     Box X =   68.705   Box Y =   67.010   Box Z =   80.400
     Alpha =   90.000   Beta  =   90.000   Gamma =   90.000
     NFFT1 =   72       NFFT2 =   72       NFFT3 =   81
     Cutoff=    8.000   Tol   =0.100E-04
     Ewald Coefficient =  0.34864
     Interpolation order =    4

    LOADING THE CONSTRAINED ATOMS AS GROUPS

   5.  REFERENCE ATOM COORDINATES

  default_name
     Mask :1-218; matches  2325 atoms

--------------------------------------------------------------------------------
   3.  ATOMIC COORDINATES AND VELOCITIES
--------------------------------------------------------------------------------

default_name
 begin time read from input coords =     2.000 ps

 Number of triangulated 3-point waters found:     9045

     Sum of charges from parm topology file =  -0.00000208
     Forcing neutrality...

--------------------------------------------------------------------------------
   4.  RESULTS
 NSTEP =       20   TIME(PS) =       2.040  TEMP(K) =    35.49  PRESS =   199.7
 Etot   =   -107311.8735  EKtot   =      2096.3682  EPtot      =   -109408.2417
 BOND   =        89.9256  ANGLE   =       354.7954  DIHED      =      1455.1527
 1-4 NB =       380.6055  1-4 EEL =      5391.3676  VDWAALS    =     21390.0370
 EELEC  =   -138502.4665  EHBOND  =         0.0000  RESTRAINT  =        32.3410
 EAMBER (non-restraint)  =   -109440.5827
 EKCMT  =      1099.6240  VIRIAL  =      -495.8681  VOLUME     =    370094.3500
                                                    Density    =         0.7979
 Ewald error estimate:   0.3085E-03
 ------------------------------------------------------------------------------

      A V E R A G E S   O V E R      50 S T E P S

 NSTEP =     1000   TIME(PS) =       4.000  TEMP(K) =   222.96  PRESS =    -5.9
 Etot   =    -81859.7696  EKtot   =     13169.0154  EPtot      =    -95028.7851
 BOND   =       306.2040  ANGLE   =       859.9179  DIHED      =      1572.4870
 1-4 NB =       415.0425  1-4 EEL =      5386.0683  VDWAALS    =     15221.5926
 EELEC  =   -118993.7684  EHBOND  =         0.0000  RESTRAINT  =       203.6710
 EAMBER (non-restraint)  =    -95232.4561
 EKCMT  =      6008.7541  VIRIAL  =      6055.6634  VOLUME     =    371924.9996
                                                    Density    =         0.7940
 Ewald error estimate:   0.1189E-03
 ------------------------------------------------------------------------------

      R M S  F L U C T U A T I O N S

 NSTEP =     1000   TIME(PS) =       4.000  TEMP(K) =    67.33  PRESS =   227.7
 Etot   =      9665.3921  EKtot   =      3977.0469  EPtot      =      5701.5541
 BOND   =        76.3301  ANGLE   =       179.5725  DIHED      =        42.8108
 1-4 NB =        13.1658  1-4 EEL =        20.8608  VDWAALS    =      2551.1192
 EELEC  =      7891.1698  EHBOND  =         0.0000  RESTRAINT  =        63.2429
 EAMBER (non-restraint)  =      5638.3112
 EKCMT  =      1777.5865  VIRIAL  =      3519.4914  VOLUME     =      1010.6998
                                                    Density    =         0.0022
 Ewald error estimate:   0.9404E-04
 ------------------------------------------------------------------------------
