-------------------------------------------------------
          Amber 16 PMEMD                              2016
          -------------------------------------------------------

  [-O]verwriting output

File Assignments:

 Here is the input file:

# Equil.in
&cntrl
imin = 0, irest = 1,ntx = 5, nstlim = 2000, dt = 0.002,
ntc = 2, ntf = 2,
cut = 10.0, ntb = 2, ntp = 1, taup=2.0,
ntpr = 20, ntwx = 20,
ntt = 3, gamma_ln = 2.0,
temp0 = 300.0,
ntr = 1, restraintmask = ':1-218',
restraint_wt = 0.5,
ioutfm = 1,
/

Note: ig = -1. Setting random seed to   765093 based on wallclock time in
      microseconds and disabling the synchronization of random numbers
      between tasks to improve performance.

--------------------------------------------------------------------------------
   1.  RESOURCE   USE:
--------------------------------------------------------------------------------

 getting box info from netcdf restart file
 NATOM  =   29205 NTYPES =      17 NBONH =   28170 MBONA  =    1053
 NTHETH =    2361 MTHETA =    1415 NPHIH =    4706 MPHIA  =    4372
 NHPARM =       0 NPARM  =       0 NNB   =   47559 NRES   =    9178
 NBONA  =    1053 NTHETA =    1415 NPHIA =    4372 NUMBND =      69
 NUMANG =     161 NPTRA  =     197 NATYP =      36 NPHB   =       1
 IFBOX  =       1 NMXRS  =      26 IFCAP =       0 NEXTRA =       0
 NCOPY  =       0

     BOX TYPE: RECTILINEAR

--------------------------------------------------------------------------------
   2.  CONTROL  DATA  FOR  THE  RUN
--------------------------------------------------------------------------------

default_name

General flags:
     imin    =       0, nmropt  =       0

Nature and format of input:
     ntx     =       5, irest   =       1, ntrx    =       1

Nature and format of output:
     ntxo    =       2, ntpr    =      20, ntrx    =       1, ntwr    =    2000
     iwrap   =       0, ntwx    =      20, ntwv    =       0, ntwe    =       0
     ioutfm  =       1, ntwprt  =       0, idecomp =       0, rbornstat=      0

Potential function:
     ntf     =       2, ntb     =       2, igb     =       0, nsnb    =      25
     ipol    =       0, gbsa    =       0, iesp    =       0
     dielc   =   1.00000, cut     =  10.00000, intdiel =   1.00000

Frozen or restrained atoms:
     ibelly  =       0, ntr     =       1
     restraint_wt =   0.50000

Molecular dynamics:
     nstlim  =      2000, nscm    =         0, nrespa  =         1
     t       =   0.00000, dt      =   0.00200, vlimit  =  20.00000

Langevin dynamics temperature regulation:
     ig      =  765093
     temp0   = 300.00000, tempi   =   0.00000, gamma_ln=   2.00000

Pressure regulation:
     ntp     =       1
     pres0   =   1.00000, comp    =  44.60000, taup    =   2.00000

SHAKE:
     ntc     =       2, jfastw  =       0
     tol     =   0.00001

Ewald parameters:
     verbose =       0, ew_type =       0, nbflag  =       1, use_pme =       1
     vdwmeth =       1, eedmeth =       1, netfrc  =       1
     Box X =   68.682   Box Y =   66.988   Box Z =   80.373
     Alpha =   90.000   Beta  =   90.000   Gamma =   90.000
     NFFT1 =   72       NFFT2 =   72       NFFT3 =   81
     Cutoff=   10.000   Tol   =0.100E-04
     Ewald Coefficient =  0.27511
     Interpolation order =    4

    LOADING THE CONSTRAINED ATOMS AS GROUPS

   5.  REFERENCE ATOM COORDINATES

  default_name
     Mask :1-218; matches  2325 atoms

--------------------------------------------------------------------------------
   3.  ATOMIC COORDINATES AND VELOCITIES
--------------------------------------------------------------------------------

default_name
 begin time read from input coords =     4.000 ps

 Number of triangulated 3-point waters found:     9045

     Sum of charges from parm topology file =  -0.00000208
     Forcing neutrality...

--------------------------------------------------------------------------------
   4.  RESULTS
 NSTEP =       20   TIME(PS) =       4.040  TEMP(K) =   285.60  PRESS =  -308.7
 Etot   =    -72124.2815  EKtot   =     16869.0550  EPtot      =    -88993.3365
 BOND   =       380.1316  ANGLE   =      1023.2840  DIHED      =      1631.5203
 1-4 NB =       425.9103  1-4 EEL =      5367.5179  VDWAALS    =     12446.8275
 EELEC  =   -110352.4140  EHBOND  =         0.0000  RESTRAINT  =        83.8860
 EAMBER (non-restraint)  =    -89077.2225
 EKCMT  =      7758.2850  VIRIAL  =     10222.3813  VOLUME     =    369692.2800
                                                    Density    =         0.7988
 Ewald error estimate:   0.5511E-04
 ------------------------------------------------------------------------------

      A V E R A G E S   O V E R     100 S T E P S

 NSTEP =     2000   TIME(PS) =       8.000  TEMP(K) =   297.15  PRESS =  -474.8
 Etot   =    -69847.2521  EKtot   =     17550.8328  EPtot      =    -87398.0848
 BOND   =       384.8253  ANGLE   =      1052.0410  DIHED      =      1622.9687
 1-4 NB =       429.0718  1-4 EEL =      5369.8187  VDWAALS    =     11588.1131
 EELEC  =   -108012.2354  EHBOND  =         0.0000  RESTRAINT  =       167.3119
 EAMBER (non-restraint)  =    -87565.3967
 EKCMT  =      8034.6922  VIRIAL  =     11745.3274  VOLUME     =    362422.0732
                                                    Density    =         0.8149
 Ewald error estimate:   0.6605E-04
 ------------------------------------------------------------------------------

      R M S  F L U C T U A T I O N S

 NSTEP =     2000   TIME(PS) =       8.000  TEMP(K) =     3.98  PRESS =   110.5
 Etot   =       625.7174  EKtot   =       235.1946  EPtot      =       425.6079
 BOND   =        16.7739  ANGLE   =        21.6678  DIHED      =        11.8889
 1-4 NB =         7.9925  1-4 EEL =        22.3992  VDWAALS    =       270.9562
 EELEC  =       646.4270  EHBOND  =         0.0000  RESTRAINT  =        17.9657
 EAMBER (non-restraint)  =       407.6422
 EKCMT  =       131.2145  VIRIAL  =       923.2579  VOLUME     =      4633.8479
                                                    Density    =         0.0104
 Ewald error estimate:   0.4736E-04
 ------------------------------------------------------------------------------
